  Version,23.2;

  Timestep,6;

  LifeCycleCost:Parameters,
    Life Cycle Cost Parameters,  !- Name
    EndOfYear,               !- Discounting Convention
    ConstantDollar,          !- Inflation Approach
    0.03,                    !- Real Discount Rate
    ,                        !- Nominal Discount Rate
    ,                        !- Inflation
    ,                        !- Base Date Month
    2011,                    !- Base Date Year
    ,                        !- Service Date Month
    2011,                    !- Service Date Year
    25,                      !- Length of Study Period in Years
    ,                        !- Tax rate
    None;                    !- Depreciation Method

  LifeCycleCost:UsePriceEscalation,
    U.S. Avg  Commercial-Electricity,  !- LCC Price Escalation Name
    Electricity,             !- Resource
    2011,                    !- Escalation Start Year
    January,                 !- Escalation Start Month
    0.9838,                  !- Year 1 Escalation
    0.9730,                  !- Year 2 Escalation
    0.9632,                  !- Year 3 Escalation
    0.9611,                  !- Year 4 Escalation
    0.9571,                  !- Year 5 Escalation
    0.9553,                  !- Year 6 Escalation
    0.9539,                  !- Year 7 Escalation
    0.9521,                  !- Year 8 Escalation
    0.9546,                  !- Year 9 Escalation
    0.9550,                  !- <none>
    0.9553,                  !- <none>
    0.9564,                  !- <none>
    0.9575,                  !- <none>
    0.9596,                  !- <none>
    0.9618,                  !- <none>
    0.9614,                  !- <none>
    0.9618,                  !- <none>
    0.9618,                  !- <none>
    0.9593,                  !- <none>
    0.9589,                  !- <none>
    0.9607,                  !- <none>
    0.9625,                  !- <none>
    0.9650,                  !- <none>
    0.9708,                  !- <none>
    0.9751,                  !- <none>
    0.9762,                  !- <none>
    0.9766,                  !- <none>
    0.9766,                  !- <none>
    0.9769,                  !- <none>
    0.9773;                  !- <none>

  LifeCycleCost:UsePriceEscalation,
    U.S. Avg  Commercial-Distillate Oil,  !- LCC Price Escalation Name
    FuelOilNo1,              !- Resource
    2011,                    !- Escalation Start Year
    January,                 !- Escalation Start Month
    0.9714,                  !- Year 1 Escalation
    0.9730,                  !- Year 2 Escalation
    0.9942,                  !- Year 3 Escalation
    1.0164,                  !- Year 4 Escalation
    1.0541,                  !- Year 5 Escalation
    1.0928,                  !- Year 6 Escalation
    1.1267,                  !- Year 7 Escalation
    1.1580,                  !- Year 8 Escalation
    1.1792,                  !- Year 9 Escalation
    1.1967,                  !- <none>
    1.2200,                  !- <none>
    1.2333,                  !- <none>
    1.2566,                  !- <none>
    1.2709,                  !- <none>
    1.2826,                  !- <none>
    1.2985,                  !- <none>
    1.3102,                  !- <none>
    1.3250,                  !- <none>
    1.3261,                  !- <none>
    1.3282,                  !- <none>
    1.3324,                  !- <none>
    1.3356,                  !- <none>
    1.3431,                  !- <none>
    1.3510,                  !- <none>
    1.3568,                  !- <none>
    1.3606,                  !- <none>
    1.3637,                  !- <none>
    1.3674,                  !- <none>
    1.3706,                  !- <none>
    1.3743;                  !- <none>

  LifeCycleCost:UsePriceEscalation,
    U.S. Avg  Commercial-Residual Oil,  !- LCC Price Escalation Name
    FuelOilNo2,              !- Resource
    2011,                    !- Escalation Start Year
    January,                 !- Escalation Start Month
    0.8469,                  !- Year 1 Escalation
    0.8257,                  !- Year 2 Escalation
    0.8681,                  !- Year 3 Escalation
    0.8988,                  !- Year 4 Escalation
    0.9289,                  !- Year 5 Escalation
    0.9604,                  !- Year 6 Escalation
    0.9897,                  !- Year 7 Escalation
    1.0075,                  !- Year 8 Escalation
    1.0314,                  !- Year 9 Escalation
    1.0554,                  !- <none>
    1.0861,                  !- <none>
    1.1278,                  !- <none>
    1.1497,                  !- <none>
    1.1620,                  !- <none>
    1.1743,                  !- <none>
    1.1852,                  !- <none>
    1.1948,                  !- <none>
    1.2037,                  !- <none>
    1.2071,                  !- <none>
    1.2119,                  !- <none>
    1.2139,                  !- <none>
    1.2194,                  !- <none>
    1.2276,                  !- <none>
    1.2365,                  !- <none>
    1.2420,                  !- <none>
    1.2461,                  !- <none>
    1.2509,                  !- <none>
    1.2550,                  !- <none>
    1.2591,                  !- <none>
    1.2638;                  !- <none>

  LifeCycleCost:UsePriceEscalation,
    U.S. Avg  Commercial-Natural gas,  !- LCC Price Escalation Name
    NaturalGas,              !- Resource
    2011,                    !- Escalation Start Year
    January,                 !- Escalation Start Month
    0.9823,                  !- Year 1 Escalation
    0.9557,                  !- Year 2 Escalation
    0.9279,                  !- Year 3 Escalation
    0.9257,                  !- Year 4 Escalation
    0.9346,                  !- Year 5 Escalation
    0.9412,                  !- Year 6 Escalation
    0.9512,                  !- Year 7 Escalation
    0.9645,                  !- Year 8 Escalation
    0.9856,                  !- Year 9 Escalation
    1.0067,                  !- <none>
    1.0222,                  !- <none>
    1.0410,                  !- <none>
    1.0610,                  !- <none>
    1.0787,                  !- <none>
    1.0942,                  !- <none>
    1.1098,                  !- <none>
    1.1220,                  !- <none>
    1.1308,                  !- <none>
    1.1386,                  !- <none>
    1.1486,                  !- <none>
    1.1619,                  !- <none>
    1.1763,                  !- <none>
    1.1918,                  !- <none>
    1.2118,                  !- <none>
    1.2284,                  !- <none>
    1.2439,                  !- <none>
    1.2605,                  !- <none>
    1.2772,                  !- <none>
    1.2938,                  !- <none>
    1.3115;                  !- <none>

  LifeCycleCost:UsePriceEscalation,
    U.S. Avg  Commercial-Coal,  !- LCC Price Escalation Name
    Coal,                    !- Resource
    2011,                    !- Escalation Start Year
    January,                 !- Escalation Start Month
    0.9970,                  !- Year 1 Escalation
    1.0089,                  !- Year 2 Escalation
    1.0089,                  !- Year 3 Escalation
    0.9941,                  !- Year 4 Escalation
    0.9941,                  !- Year 5 Escalation
    1.0000,                  !- Year 6 Escalation
    1.0030,                  !- Year 7 Escalation
    1.0059,                  !- Year 8 Escalation
    1.0089,                  !- Year 9 Escalation
    1.0119,                  !- <none>
    1.0148,                  !- <none>
    1.0178,                  !- <none>
    1.0208,                  !- <none>
    1.0267,                  !- <none>
    1.0297,                  !- <none>
    1.0356,                  !- <none>
    1.0415,                  !- <none>
    1.0534,                  !- <none>
    1.0564,                  !- <none>
    1.0593,                  !- <none>
    1.0653,                  !- <none>
    1.0712,                  !- <none>
    1.0742,                  !- <none>
    1.0801,                  !- <none>
    1.0831,                  !- <none>
    1.0831,                  !- <none>
    1.0861,                  !- <none>
    1.0890,                  !- <none>
    1.0920,                  !- <none>
    1.0950;                  !- <none>

  Building,
    Building 1,              !- Name
    270,                     !- North Axis {deg}
    Suburbs,                 !- Terrain
    ,                        !- Loads Convergence Tolerance Value {W}
    ,                        !- Temperature Convergence Tolerance Value {deltaC}
    ,                        !- Solar Distribution
    ,                        !- Maximum Number of Warmup Days
    ;                        !- Minimum Number of Warmup Days

  Shading:Building:Detailed,
    Surface 25 - res eaves,  !- Name
    ,                        !- Transmittance Schedule Name
    ,                        !- Number of Vertices
    -0.6096,8.7988181024499,5.1816,  !- X,Y,Z ==> Vertex 1 {m}
    -0.6096,4.39940905122495,7.38130452561247,  !- X,Y,Z ==> Vertex 2 {m}
    0,4.39940905122495,7.38130452561247,  !- X,Y,Z ==> Vertex 3 {m}
    0,8.7988181024499,5.1816;  !- X,Y,Z ==> Vertex 4 {m}

  Shading:Building:Detailed,
    Surface 25 - res eaves 1,!- Name
    ,                        !- Transmittance Schedule Name
    ,                        !- Number of Vertices
    16.4474725844098,4.39940905122495,7.38130452561247,  !- X,Y,Z ==> Vertex 1 {m}
    16.4474725844098,8.7988181024499,5.1816,  !- X,Y,Z ==> Vertex 2 {m}
    15.8378725844098,8.7988181024499,5.1816,  !- X,Y,Z ==> Vertex 3 {m}
    15.8378725844098,4.39940905122495,7.38130452561247;  !- X,Y,Z ==> Vertex 4 {m}

  Shading:Building:Detailed,
    Surface 25 - res eaves 2,!- Name
    ,                        !- Transmittance Schedule Name
    ,                        !- Number of Vertices
    15.8378725844098,9.4084181024499,4.8768,  !- X,Y,Z ==> Vertex 1 {m}
    0,9.4084181024499,4.8768,  !- X,Y,Z ==> Vertex 2 {m}
    0,8.7988181024499,5.1816,  !- X,Y,Z ==> Vertex 3 {m}
    15.8378725844098,8.7988181024499,5.1816;  !- X,Y,Z ==> Vertex 4 {m}

  Shading:Building:Detailed,
    Surface 39 - res eaves,  !- Name
    ,                        !- Transmittance Schedule Name
    ,                        !- Number of Vertices
    7.91307258440982,0,4.8768,  !- X,Y,Z ==> Vertex 1 {m}
    7.91307258440982,-3.6576,4.8768,  !- X,Y,Z ==> Vertex 2 {m}
    8.52267258440982,-3.6576,5.1816,  !- X,Y,Z ==> Vertex 3 {m}
    8.52267258440982,0,5.1816;  !- X,Y,Z ==> Vertex 4 {m}

  Shading:Building:Detailed,
    Surface 39 - res eaves 1,!- Name
    ,                        !- Transmittance Schedule Name
    ,                        !- Number of Vertices
    8.52267258440982,-4.2672,5.1816,  !- X,Y,Z ==> Vertex 1 {m}
    12.1802725844098,-4.2672,7.0104,  !- X,Y,Z ==> Vertex 2 {m}
    12.1802725844098,-3.6576,7.0104,  !- X,Y,Z ==> Vertex 3 {m}
    8.52267258440982,-3.6576,5.1816;  !- X,Y,Z ==> Vertex 4 {m}

  Shading:Building:Detailed,
    Surface 40 - res eaves,  !- Name
    ,                        !- Transmittance Schedule Name
    ,                        !- Number of Vertices
    16.4474725844098,-3.6576,4.8768,  !- X,Y,Z ==> Vertex 1 {m}
    16.4474725844098,0,4.8768,  !- X,Y,Z ==> Vertex 2 {m}
    15.8378725844098,0,5.1816,  !- X,Y,Z ==> Vertex 3 {m}
    15.8378725844098,-3.6576,5.1816;  !- X,Y,Z ==> Vertex 4 {m}

  Shading:Building:Detailed,
    Surface 40 - res eaves 1,!- Name
    ,                        !- Transmittance Schedule Name
    ,                        !- Number of Vertices
    12.1802725844098,-4.2672,7.0104,  !- X,Y,Z ==> Vertex 1 {m}
    15.8378725844098,-4.2672,5.1816,  !- X,Y,Z ==> Vertex 2 {m}
    15.8378725844098,-3.6576,5.1816,  !- X,Y,Z ==> Vertex 3 {m}
    12.1802725844098,-3.6576,7.0104;  !- X,Y,Z ==> Vertex 4 {m}

  Shading:Building:Detailed,
    Surface 43 - res eaves,  !- Name
    ,                        !- Transmittance Schedule Name
    ,                        !- Number of Vertices
    -0.6096,4.39940905122495,7.38130452561247,  !- X,Y,Z ==> Vertex 1 {m}
    -0.6096,8.13933689335377e-17,5.1816,  !- X,Y,Z ==> Vertex 2 {m}
    0,8.13933689335377e-17,5.1816,  !- X,Y,Z ==> Vertex 3 {m}
    0,4.39940905122495,7.38130452561247;  !- X,Y,Z ==> Vertex 4 {m}

  Shading:Building:Detailed,
    Surface 43 - res eaves 1,!- Name
    ,                        !- Transmittance Schedule Name
    ,                        !- Number of Vertices
    0,-0.6096,4.8768,  !- X,Y,Z ==> Vertex 1 {m}
    8.52267258440982,-0.6096,4.8768,  !- X,Y,Z ==> Vertex 2 {m}
    8.52267258440982,8.13933689335377e-17,5.1816,  !- X,Y,Z ==> Vertex 3 {m}
    0,8.13933689335377e-17,5.1816;  !- X,Y,Z ==> Vertex 4 {m}

  Shading:Building:Detailed,
    Surface 43 - res eaves 2,!- Name
    ,                        !- Transmittance Schedule Name
    ,                        !- Number of Vertices
    16.4474725844098,8.13933689335377e-17,5.1816,  !- X,Y,Z ==> Vertex 1 {m}
    16.4474725844098,4.39940905122495,7.38130452561247,  !- X,Y,Z ==> Vertex 2 {m}
    15.8378725844098,4.39940905122495,7.38130452561247,  !- X,Y,Z ==> Vertex 3 {m}
    15.8378725844098,8.13933689335377e-17,5.1816;  !- X,Y,Z ==> Vertex 4 {m}

  Shading:Building:Detailed,
    res neighbors left,      !- Name
    ,                        !- Transmittance Schedule Name
    ,                        !- Number of Vertices
    -4.572,-3.6576,0,  !- X,Y,Z ==> Vertex 1 {m}
    -4.572,-3.6576,7.07650452561247,  !- X,Y,Z ==> Vertex 2 {m}
    -4.572,8.7988181024499,7.07650452561247,  !- X,Y,Z ==> Vertex 3 {m}
    -4.572,8.7988181024499,0;  !- X,Y,Z ==> Vertex 4 {m}

  Shading:Building:Detailed,
    res neighbors right,     !- Name
    ,                        !- Transmittance Schedule Name
    ,                        !- Number of Vertices
    20.4098725844098,8.7988181024499,0,  !- X,Y,Z ==> Vertex 1 {m}
    20.4098725844098,8.7988181024499,7.07650452561247,  !- X,Y,Z ==> Vertex 2 {m}
    20.4098725844098,-3.6576,7.07650452561247,  !- X,Y,Z ==> Vertex 3 {m}
    20.4098725844098,-3.6576,0;  !- X,Y,Z ==> Vertex 4 {m}

  Zone,
    garage zone,             !- Name
    -0,                      !- Direction of Relative North {deg}
    0,                       !- X Origin {m}
    0,                       !- Y Origin {m}
    0,                       !- Z Origin {m}
    ,                        !- Type
    ,                        !- Multiplier
    ,                        !- Ceiling Height {m}
    ,                        !- Volume {m3}
    ,                        !- Floor Area {m2}
    ,                        !- Zone Inside Convection Algorithm
    ;                        !- Zone Outside Convection Algorithm

  BuildingSurface:Detailed,
    Surface 1,               !- Name
    Floor,                   !- Surface Type
    FloorFndGrndUnfinSlab,   !- Construction Name
    garage zone,             !- Zone Name
    ,                        !- Space Name
    Foundation,              !- Outside Boundary Condition
    Foundation Kiva 2,       !- Outside Boundary Condition Object
    NoSun,                   !- Sun Exposure
    NoWind,                  !- Wind Exposure
    ,                        !- View Factor to Ground
    ,                        !- Number of Vertices
    8.52267258440982,-3.6576,0,  !- X,Y,Z ==> Vertex 1 {m}
    8.52267258440982,3.6576,0,  !- X,Y,Z ==> Vertex 2 {m}
    15.8378725844098,3.6576,0,  !- X,Y,Z ==> Vertex 3 {m}
    15.8378725844098,-3.6576,0;  !- X,Y,Z ==> Vertex 4 {m}

  BuildingSurface:Detailed,
    Surface 2,               !- Name
    Wall,                    !- Surface Type
    WallIntFinInsUnfin Reversed,  !- Construction Name
    garage zone,             !- Zone Name
    ,                        !- Space Name
    Surface,                 !- Outside Boundary Condition
    Surface 12,              !- Outside Boundary Condition Object
    NoSun,                   !- Sun Exposure
    NoWind,                  !- Wind Exposure
    ,                        !- View Factor to Ground
    ,                        !- Number of Vertices
    8.52267258440982,3.6576,2.4384,  !- X,Y,Z ==> Vertex 1 {m}
    8.52267258440982,3.6576,0,  !- X,Y,Z ==> Vertex 2 {m}
    8.52267258440982,0,0,  !- X,Y,Z ==> Vertex 3 {m}
    8.52267258440982,0,2.4384;  !- X,Y,Z ==> Vertex 4 {m}

  BuildingSurface:Detailed,
    Surface 3,               !- Name
    Wall,                    !- Surface Type
    WallIntFinInsUnfin Reversed,  !- Construction Name
    garage zone,             !- Zone Name
    ,                        !- Space Name
    Surface,                 !- Outside Boundary Condition
    Surface 11,              !- Outside Boundary Condition Object
    NoSun,                   !- Sun Exposure
    NoWind,                  !- Wind Exposure
    ,                        !- View Factor to Ground
    ,                        !- Number of Vertices
    15.8378725844098,3.6576,2.4384,  !- X,Y,Z ==> Vertex 1 {m}
    15.8378725844098,3.6576,0,  !- X,Y,Z ==> Vertex 2 {m}
    8.52267258440982,3.6576,0,  !- X,Y,Z ==> Vertex 3 {m}
    8.52267258440982,3.6576,2.4384;  !- X,Y,Z ==> Vertex 4 {m}

  BuildingSurface:Detailed,
    Surface 36,              !- Name
    Wall,                    !- Surface Type
    WallExtUninsUnfin,       !- Construction Name
    garage zone,             !- Zone Name
    ,                        !- Space Name
    Outdoors,                !- Outside Boundary Condition
    ,                        !- Outside Boundary Condition Object
    SunExposed,              !- Sun Exposure
    WindExposed,             !- Wind Exposure
    ,                        !- View Factor to Ground
    ,                        !- Number of Vertices
    8.52267258440982,0,2.4384,  !- X,Y,Z ==> Vertex 1 {m}
    8.52267258440982,0,0,  !- X,Y,Z ==> Vertex 2 {m}
    8.52267258440982,-3.6576,0,  !- X,Y,Z ==> Vertex 3 {m}
    8.52267258440982,-3.6576,2.4384;  !- X,Y,Z ==> Vertex 4 {m}

  BuildingSurface:Detailed,
    Surface 4,               !- Name
    Wall,                    !- Surface Type
    WallExtUninsUnfin,       !- Construction Name
    garage zone,             !- Zone Name
    ,                        !- Space Name
    Outdoors,                !- Outside Boundary Condition
    ,                        !- Outside Boundary Condition Object
    SunExposed,              !- Sun Exposure
    WindExposed,             !- Wind Exposure
    ,                        !- View Factor to Ground
    ,                        !- Number of Vertices
    15.8378725844098,-3.6576,2.4384,  !- X,Y,Z ==> Vertex 1 {m}
    15.8378725844098,-3.6576,0,  !- X,Y,Z ==> Vertex 2 {m}
    15.8378725844098,3.6576,0,  !- X,Y,Z ==> Vertex 3 {m}
    15.8378725844098,3.6576,2.4384;  !- X,Y,Z ==> Vertex 4 {m}

  BuildingSurface:Detailed,
    Surface 5,               !- Name
    Wall,                    !- Surface Type
    WallExtUninsUnfin,       !- Construction Name
    garage zone,             !- Zone Name
    ,                        !- Space Name
    Outdoors,                !- Outside Boundary Condition
    ,                        !- Outside Boundary Condition Object
    SunExposed,              !- Sun Exposure
    WindExposed,             !- Wind Exposure
    ,                        !- View Factor to Ground
    ,                        !- Number of Vertices
    8.52267258440982,-3.6576,2.4384,  !- X,Y,Z ==> Vertex 1 {m}
    8.52267258440982,-3.6576,0,  !- X,Y,Z ==> Vertex 2 {m}
    15.8378725844098,-3.6576,0,  !- X,Y,Z ==> Vertex 3 {m}
    15.8378725844098,-3.6576,2.4384;  !- X,Y,Z ==> Vertex 4 {m}

  BuildingSurface:Detailed,
    Surface 6,               !- Name
    Ceiling,                 !- Surface Type
    FloorFinInsUnfin Reversed,  !- Construction Name
    garage zone,             !- Zone Name
    ,                        !- Space Name
    Surface,                 !- Outside Boundary Condition
    Surface 15,              !- Outside Boundary Condition Object
    NoSun,                   !- Sun Exposure
    NoWind,                  !- Wind Exposure
    ,                        !- View Factor to Ground
    ,                        !- Number of Vertices
    15.8378725844098,-3.6576,2.4384,  !- X,Y,Z ==> Vertex 1 {m}
    15.8378725844098,3.6576,2.4384,  !- X,Y,Z ==> Vertex 2 {m}
    8.52267258440982,3.6576,2.4384,  !- X,Y,Z ==> Vertex 3 {m}
    8.52267258440982,-3.6576,2.4384;  !- X,Y,Z ==> Vertex 4 {m}

  InternalMass,
    res furniture mass garage space,  !- Name
    res furniture construction garage space,  !- Construction Name
    garage zone,             !- Zone or ZoneList Name
    ,                        !- Space or SpaceList Name
    5.35121510399999;        !- Surface Area {m2}

  Lights,
    res lighting garage garage space,  !- Name
    garage zone,             !- Zone or ZoneList or Space or SpaceList Name
    res lighting garage,     !- Schedule Name
    LightingLevel,           !- Design Level Calculation Method
    10.7996804427604,        !- Lighting Level {W}
    ,                        !- Watts per Zone Floor Area {W/m2}
    ,                        !- Watts per Person {W/person}
    0,                       !- Return Air Fraction
    0.6,                     !- Fraction Radiant
    0.2,                     !- Fraction Visible
    1,                       !- Fraction Replaceable
    res lighting garage garage space;  !- End-Use Subcategory

  ScheduleTypeLimits,
    Fractional,              !- Name
    0,                       !- Lower Limit Value
    1,                       !- Upper Limit Value
    Continuous;              !- Numeric Type

  Schedule:Day:Interval,
    res lighting garage allday1,  !- Name
    Fractional,              !- Schedule Type Limits Name
    No,                      !- Interpolate to Timestep
    01:00,                   !- Time 1
    0.12228460328382,        !- Value Until Time 1
    02:00,                   !- Time 2
    0.0733707619702922,      !- Value Until Time 2
    04:00,                   !- Time 3
    0.0489138413135281,      !- Value Until Time 3
    05:00,                   !- Time 4
    0.0543811842613151,      !- Value Until Time 4
    06:00,                   !- Time 5
    0.149215589880653,       !- Value Until Time 5
    07:00,                   !- Time 6
    0.350317014533753,       !- Value Until Time 6
    08:00,                   !- Time 7
    0.443317151103834,       !- Value Until Time 7
    09:00,                   !- Time 8
    0.471121621356239,       !- Value Until Time 8
    10:00,                   !- Time 9
    0.484280081284361,       !- Value Until Time 9
    11:00,                   !- Time 10
    0.471112839375341,       !- Value Until Time 10
    12:00,                   !- Time 11
    0.452869982731375,       !- Value Until Time 11
    13:00,                   !- Time 12
    0.439702740822355,       !- Value Until Time 12
    14:00,                   !- Time 13
    0.435828086770498,       !- Value Until Time 13
    15:00,                   !- Time 14
    0.438551875730212,       !- Value Until Time 14
    16:00,                   !- Time 15
    0.460022793315561,       !- Value Until Time 15
    17:00,                   !- Time 16
    0.531719962864111,       !- Value Until Time 16
    18:00,                   !- Time 17
    0.691251051599702,       !- Value Until Time 17
    19:00,                   !- Time 18
    0.89669217052968,        !- Value Until Time 18
    20:00,                   !- Time 19
    1,                       !- Value Until Time 19
    21:00,                   !- Time 20
    0.904552132332794,       !- Value Until Time 20
    22:00,                   !- Time 21
    0.700045755602275,       !- Value Until Time 21
    23:00,                   !- Time 22
    0.601925034549634,       !- Value Until Time 22
    24:00,                   !- Time 23
    0.246272090259433;       !- Value Until Time 23

  Schedule:Week:Daily,
    res lighting garage Week Rule - Jan1-Jan6,  !- Name
    Schedule Day 28,         !- Sunday Schedule:Day Name
    res lighting garage allday1,  !- Monday Schedule:Day Name
    res lighting garage allday1,  !- Tuesday Schedule:Day Name
    res lighting garage allday1,  !- Wednesday Schedule:Day Name
    res lighting garage allday1,  !- Thursday Schedule:Day Name
    res lighting garage allday1,  !- Friday Schedule:Day Name
    res lighting garage allday1,  !- Saturday Schedule:Day Name
    Schedule Day 28,         !- Holiday Schedule:Day Name
    res lighting garage summer design,  !- SummerDesignDay Schedule:Day Name
    res lighting garage winter design,  !- WinterDesignDay Schedule:Day Name
    Schedule Day 28,         !- CustomDay1 Schedule:Day Name
    Schedule Day 28;         !- CustomDay2 Schedule:Day Name

  Schedule:Day:Interval,
    res lighting garage allday2,  !- Name
    Fractional,              !- Schedule Type Limits Name
    No,                      !- Interpolate to Timestep
    01:00,                   !- Time 1
    0.12228460328382,        !- Value Until Time 1
    02:00,                   !- Time 2
    0.0733707619702922,      !- Value Until Time 2
    04:00,                   !- Time 3
    0.0489138413135281,      !- Value Until Time 3
    05:00,                   !- Time 4
    0.0541014802208467,      !- Value Until Time 4
    06:00,                   !- Time 5
    0.147820862045675,       !- Value Until Time 5
    07:00,                   !- Time 6
    0.347042578587566,       !- Value Until Time 6
    08:00,                   !- Time 7
    0.439173436825303,       !- Value Until Time 7
    09:00,                   !- Time 8
    0.464457342297407,       !- Value Until Time 8
    10:00,                   !- Time 9
    0.475232134657421,       !- Value Until Time 9
    11:00,                   !- Time 10
    0.462187967815926,       !- Value Until Time 10
    12:00,                   !- Time 11
    0.444115628340919,       !- Value Until Time 11
    13:00,                   !- Time 12
    0.431071461499424,       !- Value Until Time 12
    14:00,                   !- Time 13
    0.427233024091293,       !- Value Until Time 13
    15:00,                   !- Time 14
    0.428168448241134,       !- Value Until Time 14
    16:00,                   !- Time 15
    0.438156339371322,       !- Value Until Time 15
    17:00,                   !- Time 16
    0.476880093659737,       !- Value Until Time 16
    18:00,                   !- Time 17
    0.581468024171682,       !- Value Until Time 17
    19:00,                   !- Time 18
    0.760676923180531,       !- Value Until Time 18
    20:00,                   !- Time 19
    0.930500412811326,       !- Value Until Time 19
    21:00,                   !- Time 20
    0.957918269696307,       !- Value Until Time 20
    22:00,                   !- Time 21
    0.818225519296611,       !- Value Until Time 21
    23:00,                   !- Time 22
    0.498030470466495,       !- Value Until Time 22
    24:00,                   !- Time 23
    0.246272090259433;       !- Value Until Time 23

  Schedule:Week:Daily,
    res lighting garage Week Rule - Jan7-Jan27,  !- Name
    res lighting garage allday1,  !- Sunday Schedule:Day Name
    res lighting garage allday1,  !- Monday Schedule:Day Name
    res lighting garage allday1,  !- Tuesday Schedule:Day Name
    res lighting garage allday1,  !- Wednesday Schedule:Day Name
    res lighting garage allday1,  !- Thursday Schedule:Day Name
    res lighting garage allday1,  !- Friday Schedule:Day Name
    res lighting garage allday1,  !- Saturday Schedule:Day Name
    Schedule Day 28,         !- Holiday Schedule:Day Name
    res lighting garage summer design,  !- SummerDesignDay Schedule:Day Name
    res lighting garage winter design,  !- WinterDesignDay Schedule:Day Name
    Schedule Day 28,         !- CustomDay1 Schedule:Day Name
    Schedule Day 28;         !- CustomDay2 Schedule:Day Name

  Schedule:Week:Daily,
    res lighting garage Week Rule - Jan28-Feb3,  !- Name
    res lighting garage allday1,  !- Sunday Schedule:Day Name
    res lighting garage allday1,  !- Monday Schedule:Day Name
    res lighting garage allday1,  !- Tuesday Schedule:Day Name
    res lighting garage allday1,  !- Wednesday Schedule:Day Name
    res lighting garage allday2,  !- Thursday Schedule:Day Name
    res lighting garage allday2,  !- Friday Schedule:Day Name
    res lighting garage allday2,  !- Saturday Schedule:Day Name
    Schedule Day 28,         !- Holiday Schedule:Day Name
    res lighting garage summer design,  !- SummerDesignDay Schedule:Day Name
    res lighting garage winter design,  !- WinterDesignDay Schedule:Day Name
    Schedule Day 28,         !- CustomDay1 Schedule:Day Name
    Schedule Day 28;         !- CustomDay2 Schedule:Day Name

  Schedule:Day:Interval,
    res lighting garage allday3,  !- Name
    Fractional,              !- Schedule Type Limits Name
    No,                      !- Interpolate to Timestep
    01:00,                   !- Time 1
    0.12228460328382,        !- Value Until Time 1
    02:00,                   !- Time 2
    0.0733707619702922,      !- Value Until Time 2
    04:00,                   !- Time 3
    0.0489138413135281,      !- Value Until Time 3
    05:00,                   !- Time 4
    0.0533373146006912,      !- Value Until Time 4
    06:00,                   !- Time 5
    0.144010394884816,       !- Value Until Time 5